NOECHO 
--------------------------------------------------------------------------------------
-- Example data set of Lagrangian Tracer Solver option
-- This solver uses Frontsim technology to trace a set
-- of streamlines based on the flows calculated by ECLIPSE.
-------------------------------------------------------------------------------------

RUNSPEC   ----------------------------------------------------------------------------

TITLE
 Lagrangian Tracer Solver   /

DIMENS
--NX  NY  NZ
  20   1   5  /

OIL 
WATER
GAS
ISGAS

COMPS 
 6 /

FIELD
    
TABDIMS
-- sat  pres  -max rows in tables- 
-- tab  tab     sat    press
    1    1       50     50 /

WELLDIMS
-- max  max   max    max wells  
--wells comps groups in group 
    10   10     3      10     /

START
1 Jan 1990 /

UNIFOUT
UNIFIN

LAGTRAC
/

NSTACK
 50 /

GRID      ----------------------------------------------------------------------------

INIT 

MAPUNITS
 'FEET    '
/
MAPAXES
   0.00000000E+00  -0.10000000E+04   0.00000000E+00   0.00000000E+00
   0.10000000E+04   0.00000000E+00
/
GRIDUNIT
 'FEET    ' '        '
/
SPECGRID
20 1 5 1 F
/
COORD
   0.00000000E+00   0.00000000E+00   0.10997749E+05   0.00000000E+00
   0.00000000E+00   0.11127749E+05
   0.20000000E+03   0.00000000E+00   0.11002500E+05   0.20000000E+03
   0.00000000E+00   0.11132500E+05
   0.40000000E+03   0.00000000E+00   0.11007500E+05   0.40000000E+03
   0.00000000E+00   0.11137500E+05
   0.60000000E+03   0.00000000E+00   0.11012500E+05   0.60000000E+03
   0.00000000E+00   0.11142501E+05
   0.80000000E+03   0.00000000E+00   0.11017500E+05   0.80000000E+03
   0.00000000E+00   0.11147500E+05
   0.10000001E+04   0.00000000E+00   0.11022500E+05   0.10000001E+04
   0.00000000E+00   0.11152500E+05
   0.12000000E+04   0.00000000E+00   0.11027501E+05   0.12000000E+04
   0.00000000E+00   0.11157501E+05
   0.14000000E+04   0.00000000E+00   0.11032500E+05   0.14000000E+04
   0.00000000E+00   0.11162500E+05
   0.16000000E+04   0.00000000E+00   0.11037500E+05   0.16000000E+04
   0.00000000E+00   0.11167500E+05
   0.18000001E+04   0.00000000E+00   0.11042501E+05   0.18000001E+04
   0.00000000E+00   0.11172500E+05
   0.20000001E+04   0.00000000E+00   0.11047500E+05   0.20000001E+04
   0.00000000E+00   0.11177500E+05
   0.22000000E+04   0.00000000E+00   0.11052500E+05   0.22000000E+04
   0.00000000E+00   0.11182500E+05
   0.24000000E+04   0.00000000E+00   0.11057500E+05   0.24000000E+04
   0.00000000E+00   0.11187500E+05
   0.26000000E+04   0.00000000E+00   0.11062500E+05   0.26000000E+04
   0.00000000E+00   0.11192500E+05
   0.28000000E+04   0.00000000E+00   0.11067500E+05   0.28000000E+04
   0.00000000E+00   0.11197500E+05
   0.30000000E+04   0.00000000E+00   0.11072500E+05   0.30000000E+04
   0.00000000E+00   0.11202500E+05
   0.32000000E+04   0.00000000E+00   0.11077500E+05   0.32000000E+04
   0.00000000E+00   0.11207501E+05
   0.34000002E+04   0.00000000E+00   0.11082500E+05   0.34000002E+04
   0.00000000E+00   0.11212500E+05
   0.36000002E+04   0.00000000E+00   0.11087500E+05   0.36000002E+04
   0.00000000E+00   0.11217500E+05
   0.38000000E+04   0.00000000E+00   0.11092501E+05   0.38000000E+04
   0.00000000E+00   0.11222501E+05
   0.40000002E+04   0.00000000E+00   0.11097401E+05   0.40000002E+04
   0.00000000E+00   0.11227402E+05
   0.00000000E+00   0.10000001E+04   0.10997729E+05   0.00000000E+00
   0.10000001E+04   0.11127729E+05
   0.20000000E+03   0.10000001E+04   0.11002500E+05   0.20000000E+03
   0.10000001E+04   0.11132500E+05
   0.40000000E+03   0.10000001E+04   0.11007500E+05   0.40000000E+03
   0.10000001E+04   0.11137500E+05
   0.60000000E+03   0.10000001E+04   0.11012500E+05   0.60000000E+03
   0.10000001E+04   0.11142501E+05
   0.80000000E+03   0.10000001E+04   0.11017500E+05   0.80000000E+03
   0.10000001E+04   0.11147500E+05
   0.10000001E+04   0.10000001E+04   0.11022500E+05   0.10000001E+04
   0.10000001E+04   0.11152500E+05
   0.12000000E+04   0.10000001E+04   0.11027501E+05   0.12000000E+04
   0.10000001E+04   0.11157501E+05
   0.14000000E+04   0.10000001E+04   0.11032500E+05   0.14000000E+04
   0.10000001E+04   0.11162500E+05
   0.16000000E+04   0.10000001E+04   0.11037500E+05   0.16000000E+04
   0.10000001E+04   0.11167500E+05
   0.18000001E+04   0.10000001E+04   0.11042501E+05   0.18000001E+04
   0.10000001E+04   0.11172500E+05
   0.20000001E+04   0.10000001E+04   0.11047500E+05   0.20000001E+04
   0.10000001E+04   0.11177500E+05
   0.22000000E+04   0.10000001E+04   0.11052500E+05   0.22000000E+04
   0.10000001E+04   0.11182500E+05
   0.24000000E+04   0.10000001E+04   0.11057500E+05   0.24000000E+04
   0.10000001E+04   0.11187500E+05
   0.26000000E+04   0.10000001E+04   0.11062500E+05   0.26000000E+04
   0.10000001E+04   0.11192500E+05
   0.28000000E+04   0.10000001E+04   0.11067500E+05   0.28000000E+04
   0.10000001E+04   0.11197500E+05
   0.30000000E+04   0.10000001E+04   0.11072500E+05   0.30000000E+04
   0.10000001E+04   0.11202500E+05
   0.32000000E+04   0.10000001E+04   0.11077500E+05   0.32000000E+04
   0.10000001E+04   0.11207501E+05
   0.34000002E+04   0.10000001E+04   0.11082500E+05   0.34000002E+04
   0.10000001E+04   0.11212500E+05
   0.36000002E+04   0.10000001E+04   0.11087500E+05   0.36000002E+04
   0.10000001E+04   0.11217500E+05
   0.38000000E+04   0.10000001E+04   0.11092501E+05   0.38000000E+04
   0.10000001E+04   0.11222501E+05
   0.40000002E+04   0.10000001E+04   0.11097602E+05   0.40000002E+04
   0.10000001E+04   0.11227603E+05
/
ZCORN
   0.10997749E+05   0.11002500E+05   0.11002500E+05   0.11007500E+05
   0.11007500E+05   0.11012500E+05   0.11012500E+05   0.11017500E+05
   0.11017500E+05   0.11022500E+05   0.11022500E+05   0.11027501E+05
   0.11027501E+05   0.11032500E+05   0.11032500E+05   0.11037500E+05
   0.11037500E+05   0.11042501E+05   0.11042501E+05   0.11047500E+05
   0.11047500E+05   0.11052500E+05   0.11052500E+05   0.11057500E+05
   0.11057500E+05   0.11062500E+05   0.11062500E+05   0.11067500E+05
   0.11067500E+05   0.11072500E+05   0.11072500E+05   0.11077500E+05
   0.11077500E+05   0.11082500E+05   0.11082500E+05   0.11087500E+05
   0.11087500E+05   0.11092501E+05   0.11092501E+05   0.11097401E+05
   0.10997729E+05   0.11002500E+05   0.11002500E+05   0.11007500E+05
   0.11007500E+05   0.11012500E+05   0.11012500E+05   0.11017500E+05
   0.11017500E+05   0.11022500E+05   0.11022500E+05   0.11027501E+05
   0.11027501E+05   0.11032500E+05   0.11032500E+05   0.11037500E+05
   0.11037500E+05   0.11042501E+05   0.11042501E+05   0.11047500E+05
   0.11047500E+05   0.11052500E+05   0.11052500E+05   0.11057500E+05
   0.11057500E+05   0.11062500E+05   0.11062500E+05   0.11067500E+05
   0.11067500E+05   0.11072500E+05   0.11072500E+05   0.11077500E+05
   0.11077500E+05   0.11082500E+05   0.11082500E+05   0.11087500E+05
   0.11087500E+05   0.11092501E+05   0.11092501E+05   0.11097602E+05
   0.11029749E+05   0.11034500E+05   0.11034500E+05   0.11039500E+05
   0.11039500E+05   0.11044500E+05   0.11044500E+05   0.11049500E+05
   0.11049500E+05   0.11054500E+05   0.11054500E+05   0.11059500E+05
   0.11059500E+05   0.11064500E+05   0.11064500E+05   0.11069500E+05
   0.11069500E+05   0.11074500E+05   0.11074500E+05   0.11079501E+05
   0.11079501E+05   0.11084500E+05   0.11084500E+05   0.11089500E+05
   0.11089500E+05   0.11094501E+05   0.11094501E+05   0.11099500E+05
   0.11099500E+05   0.11104500E+05   0.11104500E+05   0.11109500E+05
   0.11109500E+05   0.11114500E+05   0.11114500E+05   0.11119500E+05
   0.11119500E+05   0.11124500E+05   0.11124500E+05   0.11129401E+05
   0.11029729E+05   0.11034500E+05   0.11034500E+05   0.11039500E+05
   0.11039500E+05   0.11044500E+05   0.11044500E+05   0.11049500E+05
   0.11049500E+05   0.11054500E+05   0.11054500E+05   0.11059500E+05
   0.11059500E+05   0.11064500E+05   0.11064500E+05   0.11069500E+05
   0.11069500E+05   0.11074500E+05   0.11074500E+05   0.11079501E+05
   0.11079501E+05   0.11084500E+05   0.11084500E+05   0.11089500E+05
   0.11089500E+05   0.11094501E+05   0.11094501E+05   0.11099500E+05
   0.11099500E+05   0.11104500E+05   0.11104500E+05   0.11109500E+05
   0.11109500E+05   0.11114500E+05   0.11114500E+05   0.11119500E+05
   0.11119500E+05   0.11124500E+05   0.11124500E+05   0.11129602E+05
   0.11029749E+05   0.11034500E+05   0.11034500E+05   0.11039500E+05
   0.11039500E+05   0.11044500E+05   0.11044500E+05   0.11049500E+05
   0.11049500E+05   0.11054500E+05   0.11054500E+05   0.11059500E+05
   0.11059500E+05   0.11064500E+05   0.11064500E+05   0.11069500E+05
   0.11069500E+05   0.11074500E+05   0.11074500E+05   0.11079501E+05
   0.11079501E+05   0.11084500E+05   0.11084500E+05   0.11089500E+05
   0.11089500E+05   0.11094501E+05   0.11094501E+05   0.11099500E+05
   0.11099500E+05   0.11104500E+05   0.11104500E+05   0.11109500E+05
   0.11109500E+05   0.11114500E+05   0.11114500E+05   0.11119500E+05
   0.11119500E+05   0.11124500E+05   0.11124500E+05   0.11129401E+05
   0.11029729E+05   0.11034500E+05   0.11034500E+05   0.11039500E+05
   0.11039500E+05   0.11044500E+05   0.11044500E+05   0.11049500E+05
   0.11049500E+05   0.11054500E+05   0.11054500E+05   0.11059500E+05
   0.11059500E+05   0.11064500E+05   0.11064500E+05   0.11069500E+05
   0.11069500E+05   0.11074500E+05   0.11074500E+05   0.11079501E+05
   0.11079501E+05   0.11084500E+05   0.11084500E+05   0.11089500E+05
   0.11089500E+05   0.11094501E+05   0.11094501E+05   0.11099500E+05
   0.11099500E+05   0.11104500E+05   0.11104500E+05   0.11109500E+05
   0.11109500E+05   0.11114500E+05   0.11114500E+05   0.11119500E+05
   0.11119500E+05   0.11124500E+05   0.11124500E+05   0.11129602E+05
   0.11034749E+05   0.11039500E+05   0.11039500E+05   0.11044500E+05
   0.11044500E+05   0.11049500E+05   0.11049500E+05   0.11054500E+05
   0.11054500E+05   0.11059500E+05   0.11059500E+05   0.11064500E+05
   0.11064500E+05   0.11069500E+05   0.11069500E+05   0.11074500E+05
   0.11074500E+05   0.11079501E+05   0.11079501E+05   0.11084500E+05
   0.11084500E+05   0.11089500E+05   0.11089500E+05   0.11094501E+05
   0.11094501E+05   0.11099500E+05   0.11099500E+05   0.11104500E+05
   0.11104500E+05   0.11109500E+05   0.11109500E+05   0.11114500E+05
   0.11114500E+05   0.11119500E+05   0.11119500E+05   0.11124500E+05
   0.11124500E+05   0.11129501E+05   0.11129501E+05   0.11134401E+05
   0.11034729E+05   0.11039500E+05   0.11039500E+05   0.11044500E+05
   0.11044500E+05   0.11049500E+05   0.11049500E+05   0.11054500E+05
   0.11054500E+05   0.11059500E+05   0.11059500E+05   0.11064500E+05
   0.11064500E+05   0.11069500E+05   0.11069500E+05   0.11074500E+05
   0.11074500E+05   0.11079501E+05   0.11079501E+05   0.11084500E+05
   0.11084500E+05   0.11089500E+05   0.11089500E+05   0.11094501E+05
   0.11094501E+05   0.11099500E+05   0.11099500E+05   0.11104500E+05
   0.11104500E+05   0.11109500E+05   0.11109500E+05   0.11114500E+05
   0.11114500E+05   0.11119500E+05   0.11119500E+05   0.11124500E+05
   0.11124500E+05   0.11129501E+05   0.11129501E+05   0.11134602E+05
   0.11034749E+05   0.11039500E+05   0.11039500E+05   0.11044500E+05
   0.11044500E+05   0.11049500E+05   0.11049500E+05   0.11054500E+05
   0.11054500E+05   0.11059500E+05   0.11059500E+05   0.11064500E+05
   0.11064500E+05   0.11069500E+05   0.11069500E+05   0.11074500E+05
   0.11074500E+05   0.11079501E+05   0.11079501E+05   0.11084500E+05
   0.11084500E+05   0.11089500E+05   0.11089500E+05   0.11094501E+05
   0.11094501E+05   0.11099500E+05   0.11099500E+05   0.11104500E+05
   0.11104500E+05   0.11109500E+05   0.11109500E+05   0.11114500E+05
   0.11114500E+05   0.11119500E+05   0.11119500E+05   0.11124500E+05
   0.11124500E+05   0.11129501E+05   0.11129501E+05   0.11134401E+05
   0.11034729E+05   0.11039500E+05   0.11039500E+05   0.11044500E+05
   0.11044500E+05   0.11049500E+05   0.11049500E+05   0.11054500E+05
   0.11054500E+05   0.11059500E+05   0.11059500E+05   0.11064500E+05
   0.11064500E+05   0.11069500E+05   0.11069500E+05   0.11074500E+05
   0.11074500E+05   0.11079501E+05   0.11079501E+05   0.11084500E+05
   0.11084500E+05   0.11089500E+05   0.11089500E+05   0.11094501E+05
   0.11094501E+05   0.11099500E+05   0.11099500E+05   0.11104500E+05
   0.11104500E+05   0.11109500E+05   0.11109500E+05   0.11114500E+05
   0.11114500E+05   0.11119500E+05   0.11119500E+05   0.11124500E+05
   0.11124500E+05   0.11129501E+05   0.11129501E+05   0.11134602E+05
   0.11054749E+05   0.11059500E+05   0.11059500E+05   0.11064500E+05
   0.11064500E+05   0.11069500E+05   0.11069500E+05   0.11074500E+05
   0.11074500E+05   0.11079501E+05   0.11079501E+05   0.11084500E+05
   0.11084500E+05   0.11089500E+05   0.11089500E+05   0.11094501E+05
   0.11094501E+05   0.11099500E+05   0.11099500E+05   0.11104500E+05
   0.11104500E+05   0.11109500E+05   0.11109500E+05   0.11114500E+05
   0.11114500E+05   0.11119500E+05   0.11119500E+05   0.11124500E+05
   0.11124500E+05   0.11129501E+05   0.11129501E+05   0.11134500E+05
   0.11134500E+05   0.11139500E+05   0.11139500E+05   0.11144501E+05
   0.11144501E+05   0.11149500E+05   0.11149500E+05   0.11154401E+05
   0.11054729E+05   0.11059500E+05   0.11059500E+05   0.11064500E+05
   0.11064500E+05   0.11069500E+05   0.11069500E+05   0.11074500E+05
   0.11074500E+05   0.11079501E+05   0.11079501E+05   0.11084500E+05
   0.11084500E+05   0.11089500E+05   0.11089500E+05   0.11094501E+05
   0.11094501E+05   0.11099500E+05   0.11099500E+05   0.11104500E+05
   0.11104500E+05   0.11109500E+05   0.11109500E+05   0.11114500E+05
   0.11114500E+05   0.11119500E+05   0.11119500E+05   0.11124500E+05
   0.11124500E+05   0.11129501E+05   0.11129501E+05   0.11134500E+05
   0.11134500E+05   0.11139500E+05   0.11139500E+05   0.11144501E+05
   0.11144501E+05   0.11149500E+05   0.11149500E+05   0.11154602E+05
   0.11054749E+05   0.11059500E+05   0.11059500E+05   0.11064500E+05
   0.11064500E+05   0.11069500E+05   0.11069500E+05   0.11074500E+05
   0.11074500E+05   0.11079501E+05   0.11079501E+05   0.11084500E+05
   0.11084500E+05   0.11089500E+05   0.11089500E+05   0.11094501E+05
   0.11094501E+05   0.11099500E+05   0.11099500E+05   0.11104500E+05
   0.11104500E+05   0.11109500E+05   0.11109500E+05   0.11114500E+05
   0.11114500E+05   0.11119500E+05   0.11119500E+05   0.11124500E+05
   0.11124500E+05   0.11129501E+05   0.11129501E+05   0.11134500E+05
   0.11134500E+05   0.11139500E+05   0.11139500E+05   0.11144501E+05
   0.11144501E+05   0.11149500E+05   0.11149500E+05   0.11154401E+05
   0.11054729E+05   0.11059500E+05   0.11059500E+05   0.11064500E+05
   0.11064500E+05   0.11069500E+05   0.11069500E+05   0.11074500E+05
   0.11074500E+05   0.11079501E+05   0.11079501E+05   0.11084500E+05
   0.11084500E+05   0.11089500E+05   0.11089500E+05   0.11094501E+05
   0.11094501E+05   0.11099500E+05   0.11099500E+05   0.11104500E+05
   0.11104500E+05   0.11109500E+05   0.11109500E+05   0.11114500E+05
   0.11114500E+05   0.11119500E+05   0.11119500E+05   0.11124500E+05
   0.11124500E+05   0.11129501E+05   0.11129501E+05   0.11134500E+05
   0.11134500E+05   0.11139500E+05   0.11139500E+05   0.11144501E+05
   0.11144501E+05   0.11149500E+05   0.11149500E+05   0.11154602E+05
   0.11095749E+05   0.11100500E+05   0.11100500E+05   0.11105501E+05
   0.11105501E+05   0.11110500E+05   0.11110500E+05   0.11115500E+05
   0.11115500E+05   0.11120500E+05   0.11120500E+05   0.11125500E+05
   0.11125500E+05   0.11130500E+05   0.11130500E+05   0.11135500E+05
   0.11135500E+05   0.11140500E+05   0.11140500E+05   0.11145500E+05
   0.11145500E+05   0.11150500E+05   0.11150500E+05   0.11155501E+05
   0.11155501E+05   0.11160500E+05   0.11160500E+05   0.11165500E+05
   0.11165500E+05   0.11170501E+05   0.11170501E+05   0.11175500E+05
   0.11175500E+05   0.11180500E+05   0.11180500E+05   0.11185500E+05
   0.11185500E+05   0.11190500E+05   0.11190500E+05   0.11195401E+05
   0.11095729E+05   0.11100500E+05   0.11100500E+05   0.11105501E+05
   0.11105501E+05   0.11110500E+05   0.11110500E+05   0.11115500E+05
   0.11115500E+05   0.11120500E+05   0.11120500E+05   0.11125500E+05
   0.11125500E+05   0.11130500E+05   0.11130500E+05   0.11135500E+05
   0.11135500E+05   0.11140500E+05   0.11140500E+05   0.11145500E+05
   0.11145500E+05   0.11150500E+05   0.11150500E+05   0.11155501E+05
   0.11155501E+05   0.11160500E+05   0.11160500E+05   0.11165500E+05
   0.11165500E+05   0.11170501E+05   0.11170501E+05   0.11175500E+05
   0.11175500E+05   0.11180500E+05   0.11180500E+05   0.11185500E+05
   0.11185500E+05   0.11190500E+05   0.11190500E+05   0.11195602E+05
   0.11095749E+05   0.11100500E+05   0.11100500E+05   0.11105501E+05
   0.11105501E+05   0.11110500E+05   0.11110500E+05   0.11115500E+05
   0.11115500E+05   0.11120500E+05   0.11120500E+05   0.11125500E+05
   0.11125500E+05   0.11130500E+05   0.11130500E+05   0.11135500E+05
   0.11135500E+05   0.11140500E+05   0.11140500E+05   0.11145500E+05
   0.11145500E+05   0.11150500E+05   0.11150500E+05   0.11155501E+05
   0.11155501E+05   0.11160500E+05   0.11160500E+05   0.11165500E+05
   0.11165500E+05   0.11170501E+05   0.11170501E+05   0.11175500E+05
   0.11175500E+05   0.11180500E+05   0.11180500E+05   0.11185500E+05
   0.11185500E+05   0.11190500E+05   0.11190500E+05   0.11195401E+05
   0.11095729E+05   0.11100500E+05   0.11100500E+05   0.11105501E+05
   0.11105501E+05   0.11110500E+05   0.11110500E+05   0.11115500E+05
   0.11115500E+05   0.11120500E+05   0.11120500E+05   0.11125500E+05
   0.11125500E+05   0.11130500E+05   0.11130500E+05   0.11135500E+05
   0.11135500E+05   0.11140500E+05   0.11140500E+05   0.11145500E+05
   0.11145500E+05   0.11150500E+05   0.11150500E+05   0.11155501E+05
   0.11155501E+05   0.11160500E+05   0.11160500E+05   0.11165500E+05
   0.11165500E+05   0.11170501E+05   0.11170501E+05   0.11175500E+05
   0.11175500E+05   0.11180500E+05   0.11180500E+05   0.11185500E+05
   0.11185500E+05   0.11190500E+05   0.11190500E+05   0.11195602E+05
   0.11127749E+05   0.11132500E+05   0.11132500E+05   0.11137500E+05
   0.11137500E+05   0.11142501E+05   0.11142501E+05   0.11147500E+05
   0.11147500E+05   0.11152500E+05   0.11152500E+05   0.11157501E+05
   0.11157501E+05   0.11162500E+05   0.11162500E+05   0.11167500E+05
   0.11167500E+05   0.11172500E+05   0.11172500E+05   0.11177500E+05
   0.11177500E+05   0.11182500E+05   0.11182500E+05   0.11187500E+05
   0.11187500E+05   0.11192500E+05   0.11192500E+05   0.11197500E+05
   0.11197500E+05   0.11202500E+05   0.11202500E+05   0.11207501E+05
   0.11207501E+05   0.11212500E+05   0.11212500E+05   0.11217500E+05
   0.11217500E+05   0.11222501E+05   0.11222501E+05   0.11227402E+05
   0.11127729E+05   0.11132500E+05   0.11132500E+05   0.11137500E+05
   0.11137500E+05   0.11142501E+05   0.11142501E+05   0.11147500E+05
   0.11147500E+05   0.11152500E+05   0.11152500E+05   0.11157501E+05
   0.11157501E+05   0.11162500E+05   0.11162500E+05   0.11167500E+05
   0.11167500E+05   0.11172500E+05   0.11172500E+05   0.11177500E+05
   0.11177500E+05   0.11182500E+05   0.11182500E+05   0.11187500E+05
   0.11187500E+05   0.11192500E+05   0.11192500E+05   0.11197500E+05
   0.11197500E+05   0.11202500E+05   0.11202500E+05   0.11207501E+05
   0.11207501E+05   0.11212500E+05   0.11212500E+05   0.11217500E+05
   0.11217500E+05   0.11222501E+05   0.11222501E+05   0.11227603E+05
/



EQUALS
--  ARRAY    VALUE  ------ BOX ------

    PORO     0.18   1  20    1  1   1  5   /
    NTG      1.00   1  20    1  1   1  5   /
    PERMX    50.    1  20    1  1   1  1  /
    PERMX    0.5    1  20    1  1   2  2  /
    PERMX    20.    1  20    1  1   3  3  /
    PERMX    80.    1  20    1  1   4  4  /
    PERMX    150.   1  20    1  1   5  5  /

/   
 
COPY
--  from      to
    PERMX    PERMZ   /
    PERMX    PERMY   /
/

-- set Kv/Kh ratio
MULTIPLY
--  array   factor i1  i2  j1 j2  k1 k2
    PERMZ    0.2    1  20   1  1   1  5  /
/

RPTGRID
 /

PROPS     ----------------------------------------------------------------------------
--ECHO
-- Units: F
RTEMP
-- 
-- Constant Reservoir Temperature
-- 
         200
/
 
EOS
-- 
-- Equation of State (Reservoir EoS)
-- 
   PR3
/
 
NCOMPS
-- 
-- Number of Components
-- 
       6
/
PRCORR
-- 
-- Modified Peng-Robinson EoS
-- 
CNAMES
-- 
-- Component Names
-- 
   'CO2'
   'N2'
   'C1'
   'C3'
   'C10'
   'C15'
/
MW
-- 
-- Molecular Weights (Reservoir EoS)
-- 
         44.01
        28.013
        16.043
        44.097
           134
           206
/
 
OMEGAA
-- 
-- EoS Omega-a Coefficient (Reservoir EoS)
-- 
   0.45723
   0.45723
   0.45723
   0.45723
   0.45723
   0.45723
/
 
OMEGAB
-- 
-- EoS Omega-b Coefficient (Reservoir EoS)
-- 
   0.07779
   0.07779
   0.07779
   0.07779
   0.07779
   0.07779
/
 
-- Units: R
TCRIT
-- 
-- Critical Temperatures (Reservoir EoS)
-- 
   548.4599
   227.1600
   343.0799
   665.6400
   1126.7999
   1303.2001
/
 
-- Units: psia
PCRIT
-- 
-- Critical Pressures (Reservoir EoS)
-- 
   1071.3311
   492.3126
   667.7816
   615.7582
   350.9380
   255.2677
/
 
-- Units: ft3 /lb-mole
VCRIT
-- 
-- Critical Volumes (Reservoir EoS)
-- 
   1.5057
   1.4416
   1.5698
   3.20369
   8.55385
   12.4783
/
 
ZCRIT
-- 
-- Critical Z-Factors (Reservoir EoS)
-- 
   0.27407
   0.29115
   0.28472
   0.27616
   0.24825
   0.22776
/
 
SSHIFT
-- 
-- EoS Volume Shift (Reservoir EoS)
-- 
   -0.04273
   -0.13133
   -0.14426
   -0.077501
   0.086111
   0.14705
/
 
ACF
-- 
-- Acentric Factors (Reservoir EoS)
-- 
         0.225
          0.04
         0.013
        0.1524
         0.385
          0.55
/
 
BIC
-- 
-- Binary Interaction Coefficients (Reservoir EoS)
-- 
  -0.012
     0.1     0.1
     0.1     0.1       0
     0.1     0.1 0.04092    0.01
     0.1     0.1 0.04848    0.01       0
/
 
PARACHOR
-- 
-- Component Parachors
-- 
            78
            41
            77
         150.3
         404.9
         550.6
/
 
-- Units: ft3 /lb-mole
VCRITVIS
-- 
-- Critical Volumes for Viscosity Calc (Reservoir EoS)
-- 
   1.5057
   1.4416
   1.5698
   3.20369
   8.5538
   12.47
/
 
ZCRITVIS
-- 
-- Critical Z-Factors for Viscosity Calculation (Reservoir EoS)
-- 
   0.2740
   0.2911
   0.2847
   0.2761
   0.2482
   0.22776
/
 
LBCCOEF
-- 
-- Lorentz-Bray-Clark Viscosity Correlation Coefficients
-- 
    0.1023 0.023364 0.058533 -0.040758 0.0093324
/

ZI
-- 
-- Overall Composition
-- 
          0.01
          0.01
          0.74
          0.17
          0.05
          0.02
/

DENSITY
-- OIL   WATER   GAS
    1*   62.428   1*  /

ROCK
-- ref pres  compressibility (1/psi)
     4550         4.E-6  /

PVTW
--  Pref     Bw         Cw           Vw        Cvw
--  PSIA    RB/STB     1/PSI       CPOISE      1/PSI
    4550   1.00528   3.27915E-06   0.55730   5.89998E-06   / 

SWFN 
--  sw        krw      Pcwo
   0.15      0.        5
   0.2       0.        3
   0.25      0.01      1.9
   0.3       0.05      1
   0.35      0.1       0.7
   0.4       0.18      0.6
   0.45      0.28      0.5
   0.50      0.4       0.4
   1.00      1.        0.
/ 

SOF3
--  so       krow       krog   
   0.        0.          0.  
   0.1       0.          0.   
   0.15      0.          0.01
   0.2       0.05        0.03
   0.25      0.1         0.05
   0.3       0.15        0.08
   0.35      0.2         0.11
   0.4       0.25        0.15
   0.45      0.3         0.19
   0.5       0.35        0.23
   0.55      0.4         0.28
   0.6       0.45        0.34
   0.65      0.5         0.4
   0.7       0.55        0.47
   0.75      0.6         0.54
   0.85      0.7         0.7
/

SGFN
--  sg        krg       Pcgo
   0.        0.         0.
   0.3       0.0        0.
   0.35      0.15       0.
   0.4       0.3        0.
   0.45      0.36       0.
   0.5       0.42       0.
   0.55      0.5        0.
   0.850     1.000      0.
/

TRACER
INJG C1 /
/

SOLUTION  ----------------------------------------------------------------------------

EQUIL
-- datum  pressure  depth  Pc@ depth  Pc@  RSVD   RVVD   init   init
-- depth   @datum    woc   woc  goc   goc  table  table  accur  meth
   11000    4550    11240   0  11240   0    1*     1*     1*     1  /
 
RPTRST
 BASIC=2 FREQ=1 PRES PSAT SOIL SGAS SWAT INJG TRMFINJG /

RPTSOL
 PRES PSAT SOIL SGAS SWAT SOLVD /


TBLKINJG
100*0 /
 
SUMMARY   ----------------------------------------------------------------------------

ALL
RUNSUM
RPTONLY
SEPARATE
FTPRINJG
FTIRINJG

BTCNINJG
1 1 1 /
5 1 2 /
10 1 3 /
15 1 4 /
20 1 5 /
/

 
SCHEDULE  ----------------------------------------------------------------------------

RPTSLN
 BASIC=1 FLOWS LINES=-1  TRACERS /

TSCRIT
-- init  min   max   
-- step  step  step
    0.1  0.01   50  /

CVCRIT
-- max   max     1*   max
-- dp   n-iter       l-iter
   1*    1*      1*   50  /
 
WELSPECS
-- well  group   i  j   bhp    phase  3*  cross
-- name  name          depth  
    I1    G1     1  1   1*     GAS    3*   NO  /
    P1    G1    20  1   1*     GAS    3*   NO  /
/
 
COMPDAT         
-- name   i  j k1 k2  o/s   sat-tab  conn-fac  w-diam 
    I1    1  1  1  1  OPEN    1*       1*        0.6      /   
    P1   20  1  3  5  OPEN    1*       1*        0.6      /
/

WELLSTRE
-- NAME   CO2  N2   C1   C3   C10  C15
   C1     0.0  0.0  1.0  0.0  0.0  0.0  /
/
 
WCONINJE   
--well   inj    o/s  cntl  surf  resv  bhp  
--name  phase        mode  rate  rate  rate  
   I1    GAS   OPEN  RATE  4000   1*   8000  /
/

WINJGAS
-- well   fluid   stream  
-- name   type     name
    I1   STREAM    C1  /
/
WTRACER
 I1        INJG   1 /
/

WCONPROD
--well   o/s   cntl  oil   water  gas   liq   res   bhp   
--name         mode  rate  rate   rate  rate  rate         
   P1   OPEN   GRAT   1*    1*    5000   1*    1*   1000   /
/

TSTEP
 30*365 /

END

