--------------------------------------------------------------------------------
--                                                                            --
--  ECLIPSE 300 Thermal example data set THERM12R                             --
--  * corner point geometry                                                   --
--  * lgrs                                                                    --
--  * aquifers                                                                --
--  * heat loss                                                               --
--  * KVWI keyword                                                            --
--  * user defined water properties                                           --
--  * heaters                                                                 --
--  * flexible restart                                                        --
--                                                                            --
--                                                                            --
--  Last modified January 2004                                                --
--                                                                            --
--------------------------------------------------------------------------------

------------------------------------------------------------------------
-- Modification date: 	January 2007
-- Changes:			-
-- Result:			-
------------------------------------------------------------------------

RUNSPEC      ===================================================================

METRIC

DIMENS
10 10 3 /

OIL
GAS
WATER

COMPS
4 /

THERMAL

AQUDIMS
0 0 1 36 1 15 /

HEATDIMS
5 /

ROCKDIMS
2 /

START
1 JAN 2000 /

GRID         ==================================================================

ZCORN
    100.0000       100.0000       100.0000       100.0000       100.0000    
    100.0000       100.0000       100.0000       100.0000       100.0000    
    100.0000       100.0000       100.0000       100.0000       100.0000    
    100.0000       100.0000       100.0000       100.0000       100.0000    

    100.0000       100.0000       100.0000       100.0000       100.0000    
    100.0000       100.0000       100.0000       100.0000       100.0000    
    100.0000       100.0000       100.0000       100.0000       100.0000    
    100.0000       100.0000       100.0000       100.0000       100.0000    

    100.0000       100.0000       100.0000       100.0000       100.0000    
    100.0000       100.0000       100.0000       100.0000       100.0000    
    100.0000       100.0000       100.0000       100.0000       100.0000    
    100.0000       100.0000       100.0000       100.0000       100.0000    

    100.0000       100.0000       100.0000       100.0000       100.0000    
    100.0000       100.0000       100.0000       100.0000       100.0000    
    100.0000       100.0000       100.0000       100.0000       100.0000    
    100.0000       100.0000       100.0000       100.0000       100.0000    

    100.0000       100.0000       100.0000       100.0000       100.0000    
    100.0000       100.0000       100.0000       100.0000       100.0000    
    100.0000       100.0000       100.0000       100.0000       100.0000    
    100.0000       100.0000       100.0000       100.0000       100.0000    

    100.0000       100.0000       100.0000       100.0000       100.0000    
    100.0000       100.0000       100.0000       100.0000       100.0000    
    101.2500       101.2500       101.2500       101.2500       101.2500    
    101.2500       101.2500       101.2500       101.2500       101.2500    

    100.0000       100.0000       100.0000       100.0000       100.0000    
    100.0000       100.0000       100.0000       100.0000       100.0000    
    101.2500       101.2500       101.2500       101.2500       101.2500    
    101.2500       101.2500       101.2500       101.2500       101.2500    

    100.0000       100.0000       100.0000       100.0000       100.0000    
    100.0000       100.0000       100.0000       100.0000       100.0000    
    102.5000       102.5000       102.5000       102.5000       102.5000    
    102.5000       102.5000       102.5000       102.5000       102.5000    

    100.0000       100.0000       100.0000       100.0000       100.0000    
    100.0000       100.0000       100.0000       100.0000       100.0000    
    102.5000       102.5000       102.5000       102.5000       102.5000    
    102.5000       102.5000       102.5000       102.5000       102.5000    

    100.0000       100.0000       100.0000       100.0000       100.0000    
    100.0000       100.0000       100.0000       100.0000       100.0000    
    103.7500       103.7500       103.7500       103.7500       103.7500    
    103.7500       103.7500       103.7500       103.7500       103.7500    

    100.0000       100.0000       100.0000       100.0000       100.0000    
    100.0000       100.0000       100.0000       100.0000       100.0000    
    103.7500       103.7500       103.7500       103.7500       103.7500    
    103.7500       103.7500       103.7500       103.7500       103.7500    

    100.0000       100.0000       100.0000       100.0000       100.0000    
    100.0000       100.0000       100.0000       100.0000       100.0000    
    105.0000       105.0000       105.0000       105.0000       105.0000    
    105.0000       105.0000       105.0000       105.0000       105.0000    

    100.0000       100.0000       100.0000       100.0000       100.0000    
    100.0000       100.0000       100.0000       100.0000       100.0000    
    105.0000       105.0000       105.0000       105.0000       105.0000    
    105.0000       105.0000       105.0000       105.0000       105.0000    

    100.0000       100.0000       100.0000       100.0000       100.0000    
    100.0000       100.0000       100.0000       100.0000       100.0000    
    106.2500       106.2500       106.2500       106.2500       106.2500    
    106.2500       106.2500       106.2500       106.2500       106.2500    

    100.0000       100.0000       100.0000       100.0000       100.0000    
    100.0000       100.0000       100.0000       100.0000       100.0000    
    106.2500       106.2500       106.2500       106.2500       106.2500    
    106.2500       106.2500       106.2500       106.2500       106.2500    

    100.0000       100.0000       100.0000       100.0000       100.0000    
    100.0000       100.0000       100.0000       100.0000       100.0000    
    107.5000       107.5000       107.5000       107.5000       107.5000    
    107.5000       107.5000       107.5000       107.5000       107.5000    

    100.0000       100.0000       100.0000       100.0000       100.0000    
    100.0000       100.0000       100.0000       100.0000       100.0000    
    107.5000       107.5000       107.5000       107.5000       107.5000    
    107.5000       107.5000       107.5000       107.5000       107.5000    

    100.0000       100.0000       100.0000       100.0000       100.0000    
    100.0000       100.0000       100.0000       100.0000       100.0000    
    108.7500       108.7500       108.7500       108.7500       108.7500    
    108.7500       108.7500       108.7500       108.7500       108.7500    

    100.0000       100.0000       100.0000       100.0000       100.0000    
    100.0000       100.0000       100.0000       100.0000       100.0000    
    108.7500       108.7500       108.7500       108.7500       108.7500    
    108.7500       108.7500       108.7500       108.7500       108.7500    

    100.0000       100.0000       100.0000       100.0000       100.0000    
    100.0000       100.0000       100.0000       100.0000       100.0000    
    110.0000       110.0000       110.0000       110.0000       110.0000    
    110.0000       110.0000       110.0000       110.0000       110.0000    

    102.0000       102.0000       102.0000       102.0000       102.0000    
    102.0000       102.0000       102.0000       102.0000       102.0000    
    102.0000       102.0000       102.0000       102.0000       102.0000    
    102.0000       102.0000       102.0000       102.0000       102.0000    

    102.0000       102.0000       102.0000       102.0000       102.0000    
    102.0000       102.0000       102.0000       102.0000       102.0000    
    102.0000       102.0000       102.0000       102.0000       102.0000    
    102.0000       102.0000       102.0000       102.0000       102.0000    

    102.0000       102.0000       102.0000       102.0000       102.0000    
    102.0000       102.0000       102.0000       102.0000       102.0000    
    102.0000       102.0000       102.0000       102.0000       102.0000    
    102.0000       102.0000       102.0000       102.0000       102.0000    

    102.0000       102.0000       102.0000       102.0000       102.0000    
    102.0000       102.0000       102.0000       102.0000       102.0000    
    102.0000       102.0000       102.0000       102.0000       102.0000    
    102.0000       102.0000       102.0000       102.0000       102.0000    

    102.0000       102.0000       102.0000       102.0000       102.0000    
    102.0000       102.0000       102.0000       102.0000       102.0000    
    102.0000       102.0000       102.0000       102.0000       102.0000    
    102.0000       102.0000       102.0000       102.0000       102.0000    

    102.0000       102.0000       102.0000       102.0000       102.0000    
    102.0000       102.0000       102.0000       102.0000       102.0000    
    103.2500       103.2500       103.2500       103.2500       103.2500    
    103.2500       103.2500       103.2500       103.2500       103.2500    

    102.0000       102.0000       102.0000       102.0000       102.0000    
    102.0000       102.0000       102.0000       102.0000       102.0000    
    103.2500       103.2500       103.2500       103.2500       103.2500    
    103.2500       103.2500       103.2500       103.2500       103.2500    

    102.0000       102.0000       102.0000       102.0000       102.0000    
    102.0000       102.0000       102.0000       102.0000       102.0000    
    104.5000       104.5000       104.5000       104.5000       104.5000    
    104.5000       104.5000       104.5000       104.5000       104.5000    

    102.0000       102.0000       102.0000       102.0000       102.0000    
    102.0000       102.0000       102.0000       102.0000       102.0000    
    104.5000       104.5000       104.5000       104.5000       104.5000    
    104.5000       104.5000       104.5000       104.5000       104.5000    

    102.0000       102.0000       102.0000       102.0000       102.0000    
    102.0000       102.0000       102.0000       102.0000       102.0000    
    105.7500       105.7500       105.7500       105.7500       105.7500    
    105.7500       105.7500       105.7500       105.7500       105.7500    

    102.0000       102.0000       102.0000       102.0000       102.0000    
    102.0000       102.0000       102.0000       102.0000       102.0000    
    105.7500       105.7500       105.7500       105.7500       105.7500    
    105.7500       105.7500       105.7500       105.7500       105.7500    

    102.0000       102.0000       102.0000       102.0000       102.0000    
    102.0000       102.0000       102.0000       102.0000       102.0000    
    107.0000       107.0000       107.0000       107.0000       107.0000    
    107.0000       107.0000       107.0000       107.0000       107.0000    

    102.0000       102.0000       102.0000       102.0000       102.0000    
    102.0000       102.0000       102.0000       102.0000       102.0000    
    107.0000       107.0000       107.0000       107.0000       107.0000    
    107.0000       107.0000       107.0000       107.0000       107.0000    

    102.0000       102.0000       102.0000       102.0000       102.0000    
    102.0000       102.0000       102.0000       102.0000       102.0000    
    108.2500       108.2500       108.2500       108.2500       108.2500    
    108.2500       108.2500       108.2500       108.2500       108.2500    

    102.0000       102.0000       102.0000       102.0000       102.0000    
    102.0000       102.0000       102.0000       102.0000       102.0000    
    108.2500       108.2500       108.2500       108.2500       108.2500    
    108.2500       108.2500       108.2500       108.2500       108.2500    

    102.0000       102.0000       102.0000       102.0000       102.0000    
    102.0000       102.0000       102.0000       102.0000       102.0000    
    109.5000       109.5000       109.5000       109.5000       109.5000    
    109.5000       109.5000       109.5000       109.5000       109.5000    

    102.0000       102.0000       102.0000       102.0000       102.0000    
    102.0000       102.0000       102.0000       102.0000       102.0000    
    109.5000       109.5000       109.5000       109.5000       109.5000    
    109.5000       109.5000       109.5000       109.5000       109.5000    

    102.0000       102.0000       102.0000       102.0000       102.0000    
    102.0000       102.0000       102.0000       102.0000       102.0000    
    110.7500       110.7500       110.7500       110.7500       110.7500    
    110.7500       110.7500       110.7500       110.7500       110.7500    

    102.0000       102.0000       102.0000       102.0000       102.0000    
    102.0000       102.0000       102.0000       102.0000       102.0000    
    110.7500       110.7500       110.7500       110.7500       110.7500    
    110.7500       110.7500       110.7500       110.7500       110.7500    

    102.0000       102.0000       102.0000       102.0000       102.0000    
    102.0000       102.0000       102.0000       102.0000       102.0000    
    112.0000       112.0000       112.0000       112.0000       112.0000    
    112.0000       112.0000       112.0000       112.0000       112.0000    

    102.0000       102.0000       102.0000       102.0000       102.0000    
    102.0000       102.0000       102.0000       102.0000       102.0000    
    102.0000       102.0000       102.0000       102.0000       102.0000    
    102.0000       102.0000       102.0000       102.0000       102.0000    

    102.0000       102.0000       102.0000       102.0000       102.0000    
    102.0000       102.0000       102.0000       102.0000       102.0000    
    102.0000       102.0000       102.0000       102.0000       102.0000    
    102.0000       102.0000       102.0000       102.0000       102.0000    

    102.0000       102.0000       102.0000       102.0000       102.0000    
    102.0000       102.0000       102.0000       102.0000       102.0000    
    102.0000       102.0000       102.0000       102.0000       102.0000    
    102.0000       102.0000       102.0000       102.0000       102.0000    

    102.0000       102.0000       102.0000       102.0000       102.0000    
    102.0000       102.0000       102.0000       102.0000       102.0000    
    102.0000       102.0000       102.0000       102.0000       102.0000    
    102.0000       102.0000       102.0000       102.0000       102.0000    

    102.0000       102.0000       102.0000       102.0000       102.0000    
    102.0000       102.0000       102.0000       102.0000       102.0000    
    102.0000       102.0000       102.0000       102.0000       102.0000    
    102.0000       102.0000       102.0000       102.0000       102.0000    

    102.0000       102.0000       102.0000       102.0000       102.0000    
    102.0000       102.0000       102.0000       102.0000       102.0000    
    103.2500       103.2500       103.2500       103.2500       103.2500    
    103.2500       103.2500       103.2500       103.2500       103.2500    

    102.0000       102.0000       102.0000       102.0000       102.0000    
    102.0000       102.0000       102.0000       102.0000       102.0000    
    103.2500       103.2500       103.2500       103.2500       103.2500    
    103.2500       103.2500       103.2500       103.2500       103.2500    

    102.0000       102.0000       102.0000       102.0000       102.0000    
    102.0000       102.0000       102.0000       102.0000       102.0000    
    104.5000       104.5000       104.5000       104.5000       104.5000    
    104.5000       104.5000       104.5000       104.5000       104.5000    

    102.0000       102.0000       102.0000       102.0000       102.0000    
    102.0000       102.0000       102.0000       102.0000       102.0000    
    104.5000       104.5000       104.5000       104.5000       104.5000    
    104.5000       104.5000       104.5000       104.5000       104.5000    

    102.0000       102.0000       102.0000       102.0000       102.0000    
    102.0000       102.0000       102.0000       102.0000       102.0000    
    105.7500       105.7500       105.7500       105.7500       105.7500    
    105.7500       105.7500       105.7500       105.7500       105.7500    

    102.0000       102.0000       102.0000       102.0000       102.0000    
    102.0000       102.0000       102.0000       102.0000       102.0000    
    105.7500       105.7500       105.7500       105.7500       105.7500    
    105.7500       105.7500       105.7500       105.7500       105.7500    

    102.0000       102.0000       102.0000       102.0000       102.0000    
    102.0000       102.0000       102.0000       102.0000       102.0000    
    107.0000       107.0000       107.0000       107.0000       107.0000    
    107.0000       107.0000       107.0000       107.0000       107.0000    

    102.0000       102.0000       102.0000       102.0000       102.0000    
    102.0000       102.0000       102.0000       102.0000       102.0000    
    107.0000       107.0000       107.0000       107.0000       107.0000    
    107.0000       107.0000       107.0000       107.0000       107.0000    

    102.0000       102.0000       102.0000       102.0000       102.0000    
    102.0000       102.0000       102.0000       102.0000       102.0000    
    108.2500       108.2500       108.2500       108.2500       108.2500    
    108.2500       108.2500       108.2500       108.2500       108.2500    

    102.0000       102.0000       102.0000       102.0000       102.0000    
    102.0000       102.0000       102.0000       102.0000       102.0000    
    108.2500       108.2500       108.2500       108.2500       108.2500    
    108.2500       108.2500       108.2500       108.2500       108.2500    

    102.0000       102.0000       102.0000       102.0000       102.0000    
    102.0000       102.0000       102.0000       102.0000       102.0000    
    109.5000       109.5000       109.5000       109.5000       109.5000    
    109.5000       109.5000       109.5000       109.5000       109.5000    

    102.0000       102.0000       102.0000       102.0000       102.0000    
    102.0000       102.0000       102.0000       102.0000       102.0000    
    109.5000       109.5000       109.5000       109.5000       109.5000    
    109.5000       109.5000       109.5000       109.5000       109.5000    

    102.0000       102.0000       102.0000       102.0000       102.0000    
    102.0000       102.0000       102.0000       102.0000       102.0000    
    110.7500       110.7500       110.7500       110.7500       110.7500    
    110.7500       110.7500       110.7500       110.7500       110.7500    

    102.0000       102.0000       102.0000       102.0000       102.0000    
    102.0000       102.0000       102.0000       102.0000       102.0000    
    110.7500       110.7500       110.7500       110.7500       110.7500    
    110.7500       110.7500       110.7500       110.7500       110.7500    

    102.0000       102.0000       102.0000       102.0000       102.0000    
    102.0000       102.0000       102.0000       102.0000       102.0000    
    112.0000       112.0000       112.0000       112.0000       112.0000    
    112.0000       112.0000       112.0000       112.0000       112.0000    

    104.0000       104.0000       104.0000       104.0000       104.0000    
    104.0000       104.0000       104.0000       104.0000       104.0000    
    104.0000       104.0000       104.0000       104.0000       104.0000    
    104.0000       104.0000       104.0000       104.0000       104.0000    

    104.0000       104.0000       104.0000       104.0000       104.0000    
    104.0000       104.0000       104.0000       104.0000       104.0000    
    104.0000       104.0000       104.0000       104.0000       104.0000    
    104.0000       104.0000       104.0000       104.0000       104.0000    

    104.0000       104.0000       104.0000       104.0000       104.0000    
    104.0000       104.0000       104.0000       104.0000       104.0000    
    104.0000       104.0000       104.0000       104.0000       104.0000    
    104.0000       104.0000       104.0000       104.0000       104.0000    

    104.0000       104.0000       104.0000       104.0000       104.0000    
    104.0000       104.0000       104.0000       104.0000       104.0000    
    104.0000       104.0000       104.0000       104.0000       104.0000    
    104.0000       104.0000       104.0000       104.0000       104.0000    

    104.0000       104.0000       104.0000       104.0000       104.0000    
    104.0000       104.0000       104.0000       104.0000       104.0000    
    104.0000       104.0000       104.0000       104.0000       104.0000    
    104.0000       104.0000       104.0000       104.0000       104.0000    

    104.0000       104.0000       104.0000       104.0000       104.0000    
    104.0000       104.0000       104.0000       104.0000       104.0000    
    105.2500       105.2500       105.2500       105.2500       105.2500    
    105.2500       105.2500       105.2500       105.2500       105.2500    

    104.0000       104.0000       104.0000       104.0000       104.0000    
    104.0000       104.0000       104.0000       104.0000       104.0000    
    105.2500       105.2500       105.2500       105.2500       105.2500    
    105.2500       105.2500       105.2500       105.2500       105.2500    

    104.0000       104.0000       104.0000       104.0000       104.0000    
    104.0000       104.0000       104.0000       104.0000       104.0000    
    106.5000       106.5000       106.5000       106.5000       106.5000    
    106.5000       106.5000       106.5000       106.5000       106.5000    

    104.0000       104.0000       104.0000       104.0000       104.0000    
    104.0000       104.0000       104.0000       104.0000       104.0000    
    106.5000       106.5000       106.5000       106.5000       106.5000    
    106.5000       106.5000       106.5000       106.5000       106.5000    

    104.0000       104.0000       104.0000       104.0000       104.0000    
    104.0000       104.0000       104.0000       104.0000       104.0000    
    107.7500       107.7500       107.7500       107.7500       107.7500    
    107.7500       107.7500       107.7500       107.7500       107.7500    

    104.0000       104.0000       104.0000       104.0000       104.0000    
    104.0000       104.0000       104.0000       104.0000       104.0000    
    107.7500       107.7500       107.7500       107.7500       107.7500    
    107.7500       107.7500       107.7500       107.7500       107.7500    

    104.0000       104.0000       104.0000       104.0000       104.0000    
    104.0000       104.0000       104.0000       104.0000       104.0000    
    109.0000       109.0000       109.0000       109.0000       109.0000    
    109.0000       109.0000       109.0000       109.0000       109.0000    

    104.0000       104.0000       104.0000       104.0000       104.0000    
    104.0000       104.0000       104.0000       104.0000       104.0000    
    109.0000       109.0000       109.0000       109.0000       109.0000    
    109.0000       109.0000       109.0000       109.0000       109.0000    

    104.0000       104.0000       104.0000       104.0000       104.0000    
    104.0000       104.0000       104.0000       104.0000       104.0000    
    110.2500       110.2500       110.2500       110.2500       110.2500    
    110.2500       110.2500       110.2500       110.2500       110.2500    

    104.0000       104.0000       104.0000       104.0000       104.0000    
    104.0000       104.0000       104.0000       104.0000       104.0000    
    110.2500       110.2500       110.2500       110.2500       110.2500    
    110.2500       110.2500       110.2500       110.2500       110.2500    

    104.0000       104.0000       104.0000       104.0000       104.0000    
    104.0000       104.0000       104.0000       104.0000       104.0000    
    111.5000       111.5000       111.5000       111.5000       111.5000    
    111.5000       111.5000       111.5000       111.5000       111.5000    

    104.0000       104.0000       104.0000       104.0000       104.0000    
    104.0000       104.0000       104.0000       104.0000       104.0000    
    111.5000       111.5000       111.5000       111.5000       111.5000    
    111.5000       111.5000       111.5000       111.5000       111.5000    

    104.0000       104.0000       104.0000       104.0000       104.0000    
    104.0000       104.0000       104.0000       104.0000       104.0000    
    112.7500       112.7500       112.7500       112.7500       112.7500    
    112.7500       112.7500       112.7500       112.7500       112.7500    

    104.0000       104.0000       104.0000       104.0000       104.0000    
    104.0000       104.0000       104.0000       104.0000       104.0000    
    112.7500       112.7500       112.7500       112.7500       112.7500    
    112.7500       112.7500       112.7500       112.7500       112.7500    

    104.0000       104.0000       104.0000       104.0000       104.0000    
    104.0000       104.0000       104.0000       104.0000       104.0000    
    114.0000       114.0000       114.0000       114.0000       114.0000    
    114.0000       114.0000       114.0000       114.0000       114.0000    

    104.0000       104.0000       104.0000       104.0000       104.0000    
    104.0000       104.0000       104.0000       104.0000       104.0000    
    104.0000       104.0000       104.0000       104.0000       104.0000    
    104.0000       104.0000       104.0000       104.0000       104.0000    

    104.0000       104.0000       104.0000       104.0000       104.0000    
    104.0000       104.0000       104.0000       104.0000       104.0000    
    104.0000       104.0000       104.0000       104.0000       104.0000    
    104.0000       104.0000       104.0000       104.0000       104.0000    

    104.0000       104.0000       104.0000       104.0000       104.0000    
    104.0000       104.0000       104.0000       104.0000       104.0000    
    104.0000       104.0000       104.0000       104.0000       104.0000    
    104.0000       104.0000       104.0000       104.0000       104.0000    

    104.0000       104.0000       104.0000       104.0000       104.0000    
    104.0000       104.0000       104.0000       104.0000       104.0000    
    104.0000       104.0000       104.0000       104.0000       104.0000    
    104.0000       104.0000       104.0000       104.0000       104.0000    

    104.0000       104.0000       104.0000       104.0000       104.0000    
    104.0000       104.0000       104.0000       104.0000       104.0000    
    104.0000       104.0000       104.0000       104.0000       104.0000    
    104.0000       104.0000       104.0000       104.0000       104.0000    

    104.0000       104.0000       104.0000       104.0000       104.0000    
    104.0000       104.0000       104.0000       104.0000       104.0000    
    105.2500       105.2500       105.2500       105.2500       105.2500    
    105.2500       105.2500       105.2500       105.2500       105.2500    

    104.0000       104.0000       104.0000       104.0000       104.0000    
    104.0000       104.0000       104.0000       104.0000       104.0000    
    105.2500       105.2500       105.2500       105.2500       105.2500    
    105.2500       105.2500       105.2500       105.2500       105.2500    

    104.0000       104.0000       104.0000       104.0000       104.0000    
    104.0000       104.0000       104.0000       104.0000       104.0000    
    106.5000       106.5000       106.5000       106.5000       106.5000    
    106.5000       106.5000       106.5000       106.5000       106.5000    

    104.0000       104.0000       104.0000       104.0000       104.0000    
    104.0000       104.0000       104.0000       104.0000       104.0000    
    106.5000       106.5000       106.5000       106.5000       106.5000    
    106.5000       106.5000       106.5000       106.5000       106.5000    

    104.0000       104.0000       104.0000       104.0000       104.0000    
    104.0000       104.0000       104.0000       104.0000       104.0000    
    107.7500       107.7500       107.7500       107.7500       107.7500    
    107.7500       107.7500       107.7500       107.7500       107.7500    

    104.0000       104.0000       104.0000       104.0000       104.0000    
    104.0000       104.0000       104.0000       104.0000       104.0000    
    107.7500       107.7500       107.7500       107.7500       107.7500    
    107.7500       107.7500       107.7500       107.7500       107.7500    
